.model irf150 nmos (TOX=100N PHI=.6 KP=20.53U W=.3
+ L=2U VTO=2.831 RD=1.031M RDS=444.4K CBD=3.229N
+ PB=.8 MJ=.5
+ CGSO=9.027N CGDO=1.679N RG=13.89 IS=194e-18 N=1
+ TT=288N)