Version 4
SHEET 1 2604 1400
WIRE -256 64 -256 16
WIRE -48 64 -48 16
WIRE 224 64 224 16
WIRE 336 64 336 16
WIRE 592 64 592 16
WIRE 1056 64 1056 16
WIRE 832 80 640 80
WIRE 1008 80 832 80
WIRE -256 192 -256 144
WIRE -48 192 -48 144
WIRE 592 208 592 160
WIRE 832 208 832 80
WIRE 832 208 592 208
WIRE 224 224 224 144
WIRE 336 224 336 144
WIRE 336 224 224 224
WIRE 1056 224 1056 160
WIRE 1408 224 1056 224
WIRE 1840 224 1840 176
WIRE 2304 224 2304 176
WIRE 224 272 224 224
WIRE 592 272 592 208
WIRE 1056 272 1056 224
WIRE 1792 304 1744 304
WIRE 2400 304 2352 304
WIRE 544 352 496 352
WIRE 1152 352 1104 352
WIRE 1408 368 1408 304
WIRE 1840 384 1840 320
WIRE 2080 384 1840 384
WIRE 2304 384 2304 320
WIRE 2304 384 2080 384
WIRE 592 432 592 368
WIRE 832 432 592 432
WIRE 1056 432 1056 368
WIRE 1056 432 832 432
WIRE 2080 464 2080 384
WIRE 832 512 832 432
WIRE 2032 544 1984 544
WIRE 784 592 736 592
WIRE 2080 608 2080 560
WIRE 832 656 832 608
FLAG -256 192 0
FLAG -48 192 0
FLAG -256 16 Vdd
FLAG -48 16 vbias
FLAG 224 272 0
FLAG 224 16 vp
FLAG 592 16 Vdd
FLAG 1056 16 Vdd
FLAG 832 656 0
FLAG 736 592 vbias
FLAG 496 352 vp
FLAG 1152 352 vn
FLAG 336 16 vn
FLAG 1408 368 0
FLAG 2080 608 0
FLAG 1984 544 vbias
FLAG 1744 304 vp
FLAG 2400 304 vn
FLAG 1840 176 Vdd
FLAG 2304 176 Vdd
SYMBOL voltage -256 48 R0
SYMATTR InstName V1
SYMATTR Value 3
SYMBOL voltage -48 48 R0
WINDOW 3 33 99 Left 2
WINDOW 123 0 0 Left 2
WINDOW 39 0 0 Left 2
SYMATTR InstName V2
SYMATTR Value 3
SYMBOL voltage 224 48 R0
WINDOW 123 0 0 Left 2
WINDOW 39 0 0 Left 2
SYMATTR InstName V3
SYMATTR Value ""
SYMBOL pmos 1008 160 M180
SYMATTR InstName M2
SYMBOL pmos 640 160 R180
SYMATTR InstName M3
SYMBOL nmos 544 272 R0
SYMATTR InstName M4
SYMBOL nmos 1104 272 M0
SYMATTR InstName M5
SYMBOL nmos 784 512 R0
SYMATTR InstName M6
SYMBOL voltage 336 48 R0
SYMATTR InstName V4
SYMATTR Value 4
SYMBOL nmos 1792 224 R0
SYMATTR InstName M1
SYMBOL nmos 2352 224 M0
SYMATTR InstName M7
SYMBOL nmos 2032 464 R0
SYMATTR InstName M8
SYMBOL current 1408 224 R0
SYMATTR InstName I1
SYMATTR Value 1
TEXT -290 424 Left 2 !.dc V3 0 8 0.01 v4 -3 3 0.5
TEXT -368 1384 Left 2 !.inc "D:\\Elektronik\\Spice Modells\\IRF150\\IRF150.txt"
TEXT -360 1312 Left 2 !.inc "D:\\Elektronik\\Spice Modells\\IRF9140\\IRF9140.txt"
TEXT -368 1256 Left 2 !.inc "D:\\Elektronik\\Spice Modells\\IRLML5103\\irlml5103.txt"
TEXT -288 368 Left 2 !*.step param vb 3 10 0.5
TEXT -368 1184 Left 2 !.inc "D:\\Elektronik\\Spice Modells\\SI3433CDV\\SI3433CDV.TXT"
