Version 4
SHEET 1 880 680
WIRE 80 176 -32 176
WIRE 272 176 176 176
WIRE -32 224 -32 176
WIRE 160 240 160 224
WIRE 272 240 272 176
WIRE -32 336 -32 304
WIRE 160 336 160 320
WIRE 160 336 -32 336
WIRE 272 336 272 320
WIRE 272 336 160 336
WIRE 160 352 160 336
FLAG 160 352 0
SYMBOL pmos 80 224 R270
SYMATTR InstName M1
SYMBOL res 144 224 R0
SYMATTR InstName R1
SYMATTR Value 100
SYMBOL voltage -32 208 R0
SYMATTR InstName V1
SYMATTR Value 14
SYMBOL res 256 224 R0
SYMATTR InstName R2
SYMATTR Value 1000
