Version 4
SHEET 1 1172 680
WIRE 224 -144 224 -192
WIRE 176 -64 128 -64
WIRE 224 -16 224 -48
WIRE 224 16 224 -16
WIRE -224 48 -224 16
WIRE 224 144 224 96
WIRE -224 160 -224 128
WIRE -112 160 -112 112
WIRE -224 304 -224 240
WIRE -112 304 -112 240
WIRE 224 304 224 224
FLAG 224 304 0
FLAG -224 304 0
FLAG -112 304 0
FLAG -112 112 vdd
FLAG -224 16 vg
FLAG 224 -192 vdd
FLAG 128 -64 vg
FLAG 224 -16 vs
SYMBOL voltage -112 144 R0
SYMATTR InstName V1
SYMATTR Value 14
SYMBOL voltage -224 144 R0
WINDOW 3 -411 102 Left 2
WINDOW 123 0 0 Left 2
WINDOW 39 0 0 Left 2
SYMATTR InstName V2
SYMATTR Value PULSE(0 18 500u 50n 50n 500u 1m 10)
SYMBOL nmos 176 -144 R0
SYMATTR InstName M1
SYMATTR Value BSC031N06NS3
SYMBOL ind 208 0 R0
SYMATTR InstName L1
SYMATTR Value 1µ
SYMBOL res 208 128 R0
SYMATTR InstName R1
SYMATTR Value {R}
SYMATTR SpiceLine tol=1 pwr=0.1
SYMBOL res -240 32 R0
SYMATTR InstName R2
SYMATTR Value 50
TEXT -636 328 Left 2 !.tran 0 3.01m 2.999m 0.1u
TEXT 472 -80 Left 2 !*.step VDMOS BSB013NE2LXI(RON) 1 10 1
TEXT 384 168 Left 2 !.step param R 1 5 1
